[TITLE]
Check valve prevents reverse flow

[JUNCTIONS]
J1    100    0

[RESERVOIRS]
R1    50

[PIPES]
P1    R1    J1    1000    12    100    0    CV

[OPTIONS]
Units    GPM
Headloss    H-W

[END]
