[TITLE]
Emitter with backflow allowed — flow can reverse into junction

[JUNCTIONS]
J1    50    0
J2    0     0

[RESERVOIRS]
R1    100

[PIPES]
P1    R1    J1    500    12    100    0    Open
P2    J1    J2    500    12    100    0    Open

[EMITTERS]
J2    5.0

[OPTIONS]
Units    GPM
Headloss    H-W
Backflow Allowed    YES

[TIMES]
Duration    0:00

[END]
