[TITLE]
FCV and PRV in series — steady state

[JUNCTIONS]
J1    0    0
J2    0    0
J3    0    0
J4    0    0

[RESERVOIRS]
R1    120
R2    60

[PIPES]
P1    R1    J1    400    12    100    0    Open
P2    J2    J3    200    12    100    0    Open
P3    J4    R2    600    12    100    0    Open

[VALVES]
FCV    J1    J2    12    FCV    2000    0
PRV    J3    J4    12    PRV    30      0

[OPTIONS]
Units       GPM
Headloss    H-W
Accuracy    0.0001

[END]
