[TITLE]
7-day stress test — 672 hydraulic periods with chemical quality and reactions

[JUNCTIONS]
;ID    Elev    Demand
J1     150     0
J2     100     50
J3     100     40
J4     100     30
J5     100     60

[RESERVOIRS]
R1    10

[TANKS]
;ID    Elev    Init    Min    Max    Diam
T1     150     20      5      30     40

[PIPES]
;ID    Node1  Node2  Length  Diam  Rough  MLoss  Status
P1     J1     J2     800     12    100    0      Open
P2     J2     J3     600     10    100    0      Open
P3     J3     J4     600     10    100    0      Open
P4     J4     J5     800     12    100    0      Open
P5     J5     J1     1000    14    100    0      Open
P6     J1     T1     500     12    100    0      Open
P7     J3     J5     700     8     100    0      Open

[PUMPS]
PU1    R1    J1    HEAD C1

[CURVES]
C1    0      300
C1    300    100

[PATTERNS]
;24-hour diurnal demand pattern (repeats each day)
PAT1    0.5    0.4    0.3    0.3    0.4    0.6
PAT1    1.0    1.2    1.3    1.2    1.1    1.0
PAT1    1.0    0.9    1.0    1.1    1.2    1.3
PAT1    1.1    0.9    0.8    0.7    0.6    0.5

[SOURCES]
R1    CONCEN    1.5

[CONTROLS]
LINK PU1 OPEN IF NODE T1 BELOW 10
LINK PU1 CLOSED IF NODE T1 ABOVE 25

[TIMES]
Duration          168:00
Hydraulic Timestep  0:15
Quality Timestep    0:05
Pattern Timestep    1:00
Report Timestep     0:15

[REACTIONS]
Global Bulk    -0.5
Global Wall    -1.0

[OPTIONS]
Units      GPM
Headloss   H-W
Quality    Chemical mg/L
Pattern    PAT1

[END]
