[TITLE]
Pattern timestep equal to hydraulic timestep but different from the 1 h default

[JUNCTIONS]
;ID    Elev    Demand
J1     0       100
J2     0       80

[RESERVOIRS]
R1    100

[PIPES]
P1    R1    J1    1000    12    100    0    Open
P2    J1    J2    800     10    100    0    Open

[PATTERNS]
PAT1    0.5    0.8    1.2    1.3    1.0    0.7

[TIMES]
Duration           12:00
Hydraulic Timestep  0:30
Pattern Timestep    0:30
Report Timestep     0:30

[OPTIONS]
Units      GPM
Headloss   H-W
Pattern    PAT1

[END]
