[TITLE]
Pressure breaker valve — steady state

[JUNCTIONS]
J1    0    50
J2    0    50

[RESERVOIRS]
R1    100
R2    20

[PIPES]
P1    R1    J1    1000    300    100    0    Open
P2    J2    R2    1000    300    100    0    Open

[VALVES]
PBV    J1    J2    300    PBV    30    0

[OPTIONS]
Units    GPM
Headloss    H-W

[END]
