[TITLE]
PRV limits downstream pressure

[JUNCTIONS]
J0    0    0
J1    0    10

[RESERVOIRS]
R1    200

[PIPES]
P1    R1    J0    1000    12    100    0

[VALVES]
V1    J0    J1    12    PRV    50    0

[OPTIONS]
Units    GPM
Headloss    H-W

[END]
