[TITLE]
Wall reaction — first-order decay along pipe

[JUNCTIONS]
J1    0    100
J2    0    50

[RESERVOIRS]
R1    100

[PIPES]
P1    R1    J1    500     12    100    0    Open
P2    J1    J2    500     12    100    0    Open

[SOURCES]
R1    CONCEN    2.0

[TIMES]
Duration    2:00
Hydraulic Timestep    0:10
Quality Timestep    0:01
Report Timestep    0:10

[REACTIONS]
Global Bulk    0.0
Global Wall    -1.0

[OPTIONS]
Units    GPM
Headloss    H-W
Quality    Chemical mg/L

[END]
