[TITLE]
Wall reaction with roughness correlation

[JUNCTIONS]
;ID    Elev    Demand
J1     0       100
J2     0       80

[RESERVOIRS]
R1    100

[PIPES]
;ID    Node1  Node2  Length  Diam  Rough  MLoss  Status
P1     R1     J1     1000    12    100    0      Open
P2     J1     J2     800     10    140    0      Open

[SOURCES]
R1    CONCEN    2.0

[TIMES]
Duration           4:00
Hydraulic Timestep 0:15
Quality Timestep   0:01
Report Timestep    0:15

[REACTIONS]
Global Bulk    -0.5
Global Wall    -1.0
Roughness Correlation    1.0

[OPTIONS]
Units      GPM
Headloss   H-W
Quality    Chemical mg/L

[END]
