[TITLE]
Single pipe — Hazen-Williams steady state

[JUNCTIONS]
J1    0    10

[RESERVOIRS]
R1    100

[PIPES]
P1    R1    J1    1000    12    100    0    Open

[OPTIONS]
Units    GPM
Headloss    H-W

[END]
