[TITLE]
Tank-specific bulk reaction coefficient overrides global

[JUNCTIONS]
J1    0    200

[RESERVOIRS]
R1    200

[TANKS]
T1    100    10    0    20    50    0

[PIPES]
P1    R1    J1    500    12    100    0    Open
P2    J1    T1    500    12    100    0    Open

[SOURCES]
R1    CONCEN    10.0

[TIMES]
Duration    12:00
Hydraulic Timestep    1:00
Quality Timestep    0:05
Report Timestep    1:00

[REACTIONS]
Global Bulk    -0.5
Tank    T1    -2.0

[OPTIONS]
Units    GPM
Headloss    H-W
Quality    Chemical mg/L

[END]
