[TITLE]
Tank drains under demand

[JUNCTIONS]
J1    0    500

[TANKS]
; ID   Elev  Init  Min  Max  Diam  0
T1     100   15    0    20   50    0

[PIPES]
P1    T1    J1    1000    12    100    0    Open

[OPTIONS]
Units    GPM
Headloss    H-W

[TIMES]
Duration    6:00
Hydraulic Timestep    1:00
Report Timestep    1:00

[END]
