[TITLE]
Tank fills under positive head from reservoir

[RESERVOIRS]
R1    200

[TANKS]
; ID   Elev  Init  Min  Max  Diam  0
T1     0     5     0    20   50    0

[PIPES]
P1    R1    T1    1000    12    100    0    Open

[OPTIONS]
Units    GPM
Headloss    H-W

[TIMES]
Duration    6:00
Hydraulic Timestep    1:00
Report Timestep    1:00

[END]
