[TITLE]
Throttle control valve — steady state

[JUNCTIONS]
J1    0    50
J2    0    50

[RESERVOIRS]
R1    200
R2    50

[PIPES]
P1    R1    J1    1000    12    100    0    Open
P2    J2    R2    1000    12    100    0    Open

[VALVES]
TCV    J1    J2    12    TCV    10    0

[OPTIONS]
Units    GPM
Headloss    H-W

[END]
