[TITLE]
Cubic metres per day unit system — steady state

[JUNCTIONS]
J1    0    500
J2    0    200

[RESERVOIRS]
R1    100

[PIPES]
P1    R1    J1    1000    300    100    0    Open
P2    J1    J2    800     300    100    0    Open

[OPTIONS]
Units    CMD
Headloss    H-W

[END]
