[TITLE]
Litres per minute unit system — steady state

[JUNCTIONS]
J1    0    300
J2    0    150

[RESERVOIRS]
R1    100

[PIPES]
P1    R1    J1    1000    300    100    0    Open
P2    J1    J2    800     300    100    0    Open

[OPTIONS]
Units    LPM
Headloss    H-W

[END]
