[TITLE]
Valve status override via STATUS section

[JUNCTIONS]
J1    0    100
J2    0    50

[RESERVOIRS]
R1    100

[PIPES]
P1    R1    J1    1000    12    100    0    Open
P2    J1    J2    800     10    100    0    Open
P3    R1    J2    1200    10    100    0    Open

[VALVES]
; PRV between J1 and J2 — normally open with setting 50 psi
V1    J1    J2    12    PRV    50    0

[STATUS]
; Override the PRV to closed
V1    Closed

[OPTIONS]
Units    GPM
Headloss    H-W

[TIMES]
Duration    4:00
Hydraulic Timestep    1:00
Report Timestep    1:00

[END]
