[TITLE]
Zero-order bulk reaction — constant decay rate independent of concentration

[JUNCTIONS]
J1    0    100
J2    0    80

[RESERVOIRS]
R1    100

[PIPES]
P1    R1    J1    2000    12    100    0    Open
P2    J1    J2    1500    10    100    0    Open

[SOURCES]
R1    CONCEN    5.0

[TIMES]
Duration           4:00
Hydraulic Timestep 0:15
Quality Timestep   0:01
Report Timestep    0:15

[REACTIONS]
Order Bulk         0
Global Bulk       -0.5
Global Wall        0.0

[OPTIONS]
Units      GPM
Headloss   H-W
Quality    Chemical mg/L

[END]
