[TITLE]
Zero-order wall reaction — constant decay rate per wall area

[JUNCTIONS]
J1    0    100
J2    0    50

[RESERVOIRS]
R1    100

[PIPES]
P1    R1    J1    1000    12    100    0    Open
P2    J1    J2    1000    12    100    0    Open

[SOURCES]
R1    CONCEN    5.0

[TIMES]
Duration    4:00
Hydraulic Timestep    0:10
Quality Timestep    0:01
Report Timestep    0:30

[REACTIONS]
Order Wall    0
Global Bulk    0.0
Global Wall    -0.5

[OPTIONS]
Units    GPM
Headloss    H-W
Quality    Chemical mg/L

[END]
