[TITLE]
Zero-demand junction acts as passthrough

[JUNCTIONS]
J1    0    0
J2    0    10

[RESERVOIRS]
R1    100

[PIPES]
P1    R1    J1    500    12    100    0    Open
P2    J1    J2    500    12    100    0    Open

[OPTIONS]
Units    GPM
Headloss    H-W

[END]
